*EXP.DETAILS: CRUZ2019CS CRUZ2019

*GENERAL
@PEOPLE
-99
@ADDRESS
-99
@SITE
-99

*TREATMENTS                        -------------FACTOR LEVELS------------
@N R O C TNAME.................... CU FL SA IC MP MI MF MR MC MT ME MH SM
 1 1 1 0 Irrigado - Jan             1  3  0  0  1  0  0  0  0  0  0  1  2
 2 1 1 0 Irrigado - Fev             1  3  0  0  2  0  0  0  0  0  0  2  2
 3 1 1 0 Irrigado - Mar             1  3  0  0  3  0  0  0  0  0  0  3  2
 4 1 1 0 Irrigado - Abr             1  3  0  0  4  0  0  0  0  0  0  4  2
 5 1 1 0 Irrigado - Mai             1  3  0  0  5  0  0  0  0  0  0  5  2
 6 1 1 0 Irrigado - Jun             1  3  0  0  6  0  0  0  0  0  0  6  2
 7 1 1 0 Irrigado - Jul             1  3  0  0  7  0  0  0  0  0  0  7  2
 8 1 1 0 Irrigado - Ago             1  3  0  0  8  0  0  0  0  0  0  8  2
 9 1 1 0 Irrigado - Set             1  3  0  0  9  0  0  0  0  0  0  9  2
10 1 1 0 Irrigado - Out             1  3  0  0 10  0  0  0  0  0  0 10  2
11 1 1 0 Irrigado - Nov             1  3  0  0 11  0  0  0  0  0  0 11  2
12 1 1 0 Irrigado - Dez             1  3  0  0 12  0  0  0  0  0  0 12  2
13 1 1 0 Sequeiro - Jan             1  3  0  0  1  0  0  0  0  0  0  1  1
14 1 1 0 Sequeiro - Fev             1  3  0  0  2  0  0  0  0  0  0  2  1
15 1 1 0 Sequeiro - Mar             1  3  0  0  3  0  0  0  0  0  0  3  1
16 1 1 0 Sequeiro - Abr             1  3  0  0  4  0  0  0  0  0  0  4  1
17 1 1 0 Sequeiro - Mai             1  3  0  0  5  0  0  0  0  0  0  5  1
18 1 1 0 Sequeiro - Jun             1  3  0  0  6  0  0  0  0  0  0  6  1
19 1 1 0 Sequeiro - Jul             1  3  0  0  7  0  0  0  0  0  0  7  1
20 1 1 0 Sequeiro - Ago             1  3  0  0  8  0  0  0  0  0  0  8  1
21 1 1 0 Sequeiro - Set             1  3  0  0  9  0  0  0  0  0  0  9  1
22 1 1 0 Sequeiro - Out             1  3  0  0 10  0  0  0  0  0  0 10  1
23 1 1 0 Sequeiro - Nov             1  3  0  0 11  0  0  0  0  0  0 11  1
24 1 1 0 Sequeiro - Dez             1  3  0  0 12  0  0  0  0  0  0 12  1

*CULTIVARS
@C CR INGENO CNAME
 1 CS UC0030 BRS-FORMOSA
 2 CS UC0006 MCol-1684
 3 CS UC0014 CM 507-37
 4 CS UC0019 MCol-113 1-4Br
 5 CS UC0010 TMS 30572

*FIELDS
@L ID_FIELD WSTA....  FLSA  FLOB  FLDT  FLDD  FLDS  FLST SLTX  SLDP  ID_SOIL    FLNAME
 3 00000003 BJUZ       -99   -99 DR000   -99   -99   -99 SCL     70  IB00000001 Juazeiro
@L ...........XCRD ...........YCRD .....ELEV .............AREA .SLEN .FLWR .SLAS FLHST FHDUR
 3             -99             -99       -99               -99   -99   -99   -99   -99   -99

*INITIAL CONDITIONS
@C   PCR ICDAT  ICRT  ICND  ICRN  ICRE  ICWD ICRES ICREN ICREP ICRIP ICRID ICNAME
 1    CS 80001   -99   -99     1     1   -99   -99   -99   -99   -99   -99 -99
@C  ICBL  SH2O  SNH4  SNO3
 1     5  .385    .1    .8
 1    15  .385    .1    .8
 1    30  .406    .1    .8
 1    45  .406    .1    .8
 1    60  .406    .1    .8
 1    90  .456    .1    .8
 1   120  .341    .1    .8
 1   150  .365    .1    .8
 1   180  .361    .1    .8
 1   210  .361    .1    .8

*PLANTING DETAILS
@P PDATE EDATE  PPOP  PPOE  PLME  PLDS  PLRS  PLRD  PLDP  PLWT  PAGE  PENV  PLPH  SPRL                        PLNAME
 1 80001   -99   .72   -99     V     R    80   -99     5   -99   -99   -99   -99   -99                        Janeiro
 2 80030   -99   .72   -99     V     R    80   -99     5   -99   -99   -99   -99   -99                        Fevereiro
 3 80060   -99   .72   -99     V     R    80   -99     5   -99   -99   -99   -99   -99                        Março
 4 80090   -99   .72   -99     V     R    80   -99     5   -99   -99   -99   -99   -99                        Abril
 5 80120   -99   .72   -99     V     R    80   -99     5   -99   -99   -99   -99   -99                        Maio
 6 80150   -99   .72   -99     V     R    80   -99     5   -99   -99   -99   -99   -99                        Junho
 7 80180   -99   .72   -99     V     R    80   -99     5   -99   -99   -99   -99   -99                        Julho
 8 80210   -99   .72   -99     V     R    80   -99     5   -99   -99   -99   -99   -99                        Agosto
 9 80240   -99   .72   -99     V     R    80   -99     5   -99   -99   -99   -99   -99                        Setembro
10 80270   -99   .72   -99     V     R    80   -99     5   -99   -99   -99   -99   -99                        Outubro
11 80300   -99   .72   -99     V     R    80   -99     5   -99   -99   -99   -99   -99                        Novembro
12 80330   -99   .72   -99     V     R    80   -99     5   -99   -99   -99   -99   -99                        Dezembro

*IRRIGATION AND WATER MANAGEMENT
@I  EFIR  IDEP  ITHR  IEPT  IOFF  IAME  IAMT IRNAME
 1    .9    30    50   100 GS000 IR001    10 Standard
@I IDATE  IROP IRVAL
 1 19015 IR004    15
 1 19022 IR004    15
 1 19029 IR004    15
 1 19036 IR004    15
 1 19043 IR004    15
 1 19050 IR004    15
 1 19057 IR004    15
 1 19064 IR004    15
 1 19071 IR004    15
 1 19078 IR004    15

*HARVEST DETAILS
@H HDATE  HSTG  HCOM HSIZE   HPC  HBPC HNAME
 1 81001 GS000   -99   -99   -99   -99 Colheita em Janeiro
 2 81030 GS000   -99   -99   -99   -99 Colheita em Fevereiro
 3 81060 GS000   -99   -99   -99   -99 Colheita em Março
 4 81090 GS000   -99   -99   -99   -99 Colheita em Abril
 5 81120 GS000   -99   -99   -99   -99 Colheita em Maio
 6 81150 GS000   -99   -99   -99   -99 Colheita em Junho
 7 81180 GS000   -99   -99   -99   -99 Colheita em Julho
 8 81210 GS000   -99   -99   -99   -99 Colheita em Agosto
 9 81240 GS000   -99   -99   -99   -99 Colheita em Setembro
10 81270 GS000   -99   -99   -99   -99 Colheita em Outubro
11 81300 GS000   -99   -99   -99   -99 Colheita em Novembro
12 81330 GS000   -99   -99   -99   -99 Colheita em Dezembro

*SIMULATION CONTROLS
@N GENERAL     NYERS NREPS START SDATE RSEED SNAME.................... SMODEL
 1 GE              1     1     S 80001  2150 Rainfed                   CSCAS
@N OPTIONS     WATER NITRO SYMBI PHOSP POTAS DISES  CHEM  TILL   CO2
 1 OP              Y     N     N     N     N     N     N     Y     W
@N METHODS     WTHER INCON LIGHT EVAPO INFIL PHOTO HYDRO NSWIT MESOM MESEV MESOL
 1 ME              M     M     E     R     S     L     R     1     G     S     2
@N MANAGEMENT  PLANT IRRIG FERTI RESID HARVS
 1 MA              R     N     R     R     R
@N OUTPUTS     FNAME OVVEW SUMRY FROPT GROUT CAOUT WAOUT NIOUT MIOUT DIOUT VBOSE CHOUT OPOUT FMOPT
 1 OU              Y     Y     Y     5     Y     Y     Y     N     N     N     A     N     N     A

@  AUTOMATIC MANAGEMENT
@N PLANTING    PFRST PLAST PH2OL PH2OU PH2OD PSTMX PSTMN
 1 PL          80001 80001    40   100    30    40    10
@N IRRIGATION  IMDEP ITHRL ITHRU IROFF IMETH IRAMT IREFF
 1 IR             30    50   100 IB001 IB001    10   .75
@N NITROGEN    NMDEP NMTHR NAMNT NCODE NAOFF
 1 NI             30    50    25 IB001 IB001
@N RESIDUES    RIPCN RTIME RIDEP
 1 RE            100     1    20
@N HARVEST     HFRST HLAST HPCNP HPCNR
 1 HA              0 98001   100     0

@N GENERAL     NYERS NREPS START SDATE RSEED SNAME.................... SMODEL
 2 GE              1     1     S 80001  2150 Irrigado                  CSCAS
@N OPTIONS     WATER NITRO SYMBI PHOSP POTAS DISES  CHEM  TILL   CO2
 2 OP              N     N     N     N     N     N     N     Y     W
@N METHODS     WTHER INCON LIGHT EVAPO INFIL PHOTO HYDRO NSWIT MESOM MESEV MESOL
 2 ME              M     M     E     R     S     L     R     1     G     S     2
@N MANAGEMENT  PLANT IRRIG FERTI RESID HARVS
 2 MA              R     A     R     R     R
@N OUTPUTS     FNAME OVVEW SUMRY FROPT GROUT CAOUT WAOUT NIOUT MIOUT DIOUT VBOSE CHOUT OPOUT FMOPT
 2 OU              Y     N     Y     5     N     N     N     N     N     N     N     N     N     A

@  AUTOMATIC MANAGEMENT
@N PLANTING    PFRST PLAST PH2OL PH2OU PH2OD PSTMX PSTMN
 2 PL          80001 80001    40   100    30    40    10
@N IRRIGATION  IMDEP ITHRL ITHRU IROFF IMETH IRAMT IREFF
 2 IR             30    90   100 IB001 IR004    10   .75
@N NITROGEN    NMDEP NMTHR NAMNT NCODE NAOFF
 2 NI             30    50    25 IB001 IB001
@N RESIDUES    RIPCN RTIME RIDEP
 2 RE            100     1    20
@N HARVEST     HFRST HLAST HPCNP HPCNR
 2 HA              0 98001   100     0



